test/data/matpower/multi_nw/mpc_multinetwork_20/mpc_000_007.m
function mpc = mpc_000_007
%MPC_000_007	Extended MATPOWER case file generated from aggregated PyPSA generator and load data
%	Period: 0 	Weight: 65
%	Time step: 7

%%	MATPOWER Case Format : Version 2
mpc.version = '2';

%% system MVA base
mpc.baseMVA = 100;

%% bus data
%	bus_i	type	Pd	Qd	Gs	Bs	area	Vm	Va	baseKV	zone	Vmax	Vmin
mpc.bus = [
	1	2	1383.2876644719022	0.0	0.0	0.0	1	1.0	0.0	230.0	1	1.1	0.9;
	2	2	4624.720831053819	0.0	0.0	0.0	2	1.0	0.0	230.0	1	1.1	0.9;
	11	2	1133.3485140799464	0.0	0.0	0.0	11	1.0	0.0	230.0	1	1.1	0.9;
	12	2	558.7506840370951	0.0	0.0	0.0	12	1.0	0.0	230.0	1	1.1	0.9;
	13	2	4124.346822460547	0.0	0.0	0.0	13	1.0	0.0	230.0	1	1.1	0.9;
	14	2	5553.260249825032	0.0	0.0	0.0	14	1.0	0.0	230.0	1	1.1	0.9;
	15	2	232.17530090793912	0.0	0.0	0.0	15	1.0	0.0	230.0	1	1.1	0.9;
	16	2	2516.5516004483543	0.0	0.0	0.0	16	1.0	0.0	230.0	1	1.1	0.9;
	17	2	2606.3268594421547	0.0	0.0	0.0	17	1.0	0.0	230.0	1	1.1	0.9;
	18	2	3542.8192655701714	0.0	0.0	0.0	18	1.0	0.0	230.0	1	1.1	0.9;
	19	2	881.6152868243904	0.0	0.0	0.0	19	1.0	0.0	230.0	1	1.1	0.9;
	20	2	2185.374027053469	0.0	0.0	0.0	20	1.0	0.0	230.0	1	1.1	0.9;
	3	2	5253.7188124560935	0.0	0.0	0.0	3	1.0	0.0	230.0	1	1.1	0.9;
	4	2	3280.541159588691	0.0	0.0	0.0	4	1.0	0.0	230.0	1	1.1	0.9;
	5	2	3815.5111623616335	0.0	0.0	0.0	5	1.0	0.0	230.0	1	1.1	0.9;
	6	2	6044.260861424752	0.0	0.0	0.0	6	1.0	0.0	230.0	1	1.1	0.9;
	7	2	2082.1744585709866	0.0	0.0	0.0	7	1.0	0.0	230.0	1	1.1	0.9;
	8	2	4003.3939977384853	0.0	0.0	0.0	8	1.0	0.0	230.0	1	1.1	0.9;
	9	2	5165.871761080877	0.0	0.0	0.0	9	1.0	0.0	230.0	1	1.1	0.9;
	10	2	3407.4682636510784	0.0	0.0	0.0	10	1.0	0.0	230.0	1	1.1	0.9;
];

%% generator data
%	bus	Pg	Qg	Qmax	Qmin	Vg	mBase	status	Pmax	Pmin	H	n0	nE	nE_max
mpc.gen = [
	1	0.0	0.0	0.0	-0.0	1.0	100.0	1	9.5255	2.0436	2.8	8.0	8.0	469.0;	%0 biomass
	1	0.0	0.0	0.0	-0.0	1.0	100.0	1	11.041486037946155	0.0	0.0	1.0	1.0	276.0;	%0 offwind
	1	0.0	0.0	0.0	-0.0	1.0	100.0	1	22.292342667033253	0.0	0.0	43.0	43.0	124.0;	%0 onwind
	1	0.0	0.0	0.0	-0.0	1.0	100.0	1	2.025531863528832	0.0	0.0	23.0	23.0	168.0;	%0 solar
	2	0.0	0.0	0.0	-0.0	1.0	100.0	1	208.82	78.4	5.0	5.0	5.0	53.0;	%1 CCGT
	2	0.0	0.0	0.0	-0.0	1.0	100.0	1	168.10750000000002	78.4	2.8	2.0	2.0	53.0;	%1 OCGT
	2	0.0	0.0	0.0	-0.0	1.0	100.0	1	9.71684375	2.0436	2.8	24.0	24.0	1172.0;	%1 biomass
	2	0.0	0.0	0.0	-0.0	1.0	100.0	1	16.25236417010359	0.0	0.0	57.0	57.0	309.0;	%1 onwind
	2	0.0	0.0	0.0	-0.0	1.0	100.0	1	1.9936168681820368	0.0	0.0	75.0	75.0	419.0;	%1 solar
	11	0.0	0.0	0.0	-0.0	1.0	100.0	1	174.25	78.4	5.0	2.0	2.0	74.0;	%10 CCGT
	11	0.0	0.0	0.0	-0.0	1.0	100.0	1	149.3	78.4	2.8	1.0	1.0	74.0;	%10 OCGT
	11	0.0	0.0	0.0	-0.0	1.0	100.0	1	9.873419199999999	2.0436	2.8	50.0	50.0	1637.0;	%10 biomass
	11	0.0	0.0	0.0	-0.0	1.0	100.0	1	12.574371876940337	0.0	0.0	20.0	20.0	963.0;	%10 offwind
	11	0.0	0.0	0.0	-0.0	1.0	100.0	1	22.016858454004073	0.0	0.0	118.0	118.0	431.0;	%10 onwind
	11	0.0	0.0	0.0	-0.0	1.0	100.0	1	1.8538153635476167	0.0	0.0	86.0	86.0	585.0;	%10 solar
	12	0.0	0.0	0.0	-0.0	1.0	100.0	1	78.4	78.4	5.0	1.0	1.0	46.0;	%11 CCGT
	12	0.0	0.0	0.0	-0.0	1.0	100.0	1	209.5	78.4	2.8	1.0	1.0	46.0;	%11 OCGT
	12	0.0	0.0	0.0	-0.0	1.0	100.0	1	9.822157142857145	2.0436	2.8	35.0	35.0	1023.0;	%11 biomass
	12	0.0	0.0	0.0	-0.0	1.0	100.0	1	12.130291152021082	0.0	0.0	7.0	7.0	602.0;	%11 offwind
	12	0.0	0.0	0.0	-0.0	1.0	100.0	1	29.717493694470154	0.0	0.0	86.0	86.0	270.0;	%11 onwind
	12	0.0	0.0	0.0	-0.0	1.0	100.0	1	1.434529531781569	0.0	0.0	40.0	40.0	366.0;	%11 solar
	13	0.0	0.0	0.0	-0.0	1.0	100.0	1	78.4	78.4	2.8	1.0	1.0	58.0;	%12 OCGT
	13	0.0	0.0	0.0	-0.0	1.0	100.0	1	9.90428347826087	2.0436	2.8	69.0	69.0	1280.0;	%12 biomass
	13	0.0	0.0	0.0	-0.0	1.0	100.0	1	9.639296090981993	0.0	0.0	29.0	29.0	337.0;	%12 onwind
	13	0.0	0.0	0.0	-0.0	1.0	100.0	1	2.135863984843348	0.0	0.0	166.0	166.0	457.0;	%12 solar
	14	0.0	0.0	0.0	-0.0	1.0	100.0	1	193.292	78.4	5.0	5.0	5.0	72.0;	%13 CCGT
	14	0.0	0.0	0.0	-0.0	1.0	100.0	1	198.34283333333335	78.4	2.8	3.0	3.0	72.0;	%13 OCGT
	14	0.0	0.0	0.0	-0.0	1.0	100.0	1	9.778892954545455	2.0436	2.8	44.0	44.0	1597.0;	%13 biomass
	14	0.0	0.0	0.0	-0.0	1.0	100.0	1	12.885201972172485	0.0	0.0	45.0	45.0	421.0;	%13 onwind
	14	0.0	0.0	0.0	-0.0	1.0	100.0	1	2.084708611698843	0.0	0.0	154.0	154.0	571.0;	%13 solar
	15	0.0	0.0	0.0	-0.0	1.0	100.0	1	78.4	78.4	5.0	1.0	1.0	28.0;	%14 CCGT
	15	0.0	0.0	0.0	-0.0	1.0	100.0	1	78.4	78.4	2.8	1.0	1.0	28.0;	%14 OCGT
	15	0.0	0.0	0.0	-0.0	1.0	100.0	1	9.49785	2.0436	2.8	11.0	11.0	621.0;	%14 biomass
	15	0.0	0.0	0.0	-0.0	1.0	100.0	1	12.477335532993502	0.0	0.0	34.0	34.0	365.0;	%14 offwind
	15	0.0	0.0	0.0	-0.0	1.0	100.0	1	25.45200495266257	0.0	0.0	37.0	37.0	164.0;	%14 onwind
	15	0.0	0.0	0.0	-0.0	1.0	100.0	1	1.8888952675867934	0.0	0.0	33.0	33.0	222.0;	%14 solar
	16	0.0	0.0	0.0	-0.0	1.0	100.0	1	142.0	78.4	5.0	2.0	2.0	75.0;	%15 CCGT
	16	0.0	0.0	0.0	-0.0	1.0	100.0	1	78.4	78.4	2.8	1.0	1.0	75.0;	%15 OCGT
	16	0.0	0.0	0.0	-0.0	1.0	100.0	1	9.853806481481481	2.0436	2.8	54.0	54.0	1672.0;	%15 biomass
	16	0.0	0.0	0.0	-0.0	1.0	100.0	1	13.624542903689802	0.0	0.0	46.0	46.0	984.0;	%15 offwind
	16	0.0	0.0	0.0	-0.0	1.0	100.0	1	26.740771955763456	0.0	0.0	137.0	137.0	440.0;	%15 onwind
	16	0.0	0.0	0.0	-0.0	1.0	100.0	1	1.7585709633498292	0.0	0.0	56.0	56.0	597.0;	%15 solar
	17	0.0	0.0	0.0	-0.0	1.0	100.0	1	120.0	78.4	5.0	2.0	2.0	58.0;	%16 CCGT
	17	0.0	0.0	0.0	-0.0	1.0	100.0	1	133.45	78.4	2.8	1.0	1.0	58.0;	%16 OCGT
	17	0.0	0.0	0.0	-0.0	1.0	100.0	1	9.93894076923077	2.0436	2.8	52.0	52.0	1279.0;	%16 biomass
	17	0.0	0.0	0.0	-0.0	1.0	100.0	1	8.932467129276446	0.0	0.0	18.0	18.0	337.0;	%16 onwind
	17	0.0	0.0	0.0	-0.0	1.0	100.0	1	2.304097265025418	0.0	0.0	173.0	173.0	457.0;	%16 solar
	18	0.0	0.0	0.0	-0.0	1.0	100.0	1	172.2	78.4	5.0	1.0	1.0	45.0;	%17 CCGT
	18	0.0	0.0	0.0	-0.0	1.0	100.0	1	80.11	78.4	2.8	1.0	1.0	45.0;	%17 OCGT
	18	0.0	0.0	0.0	-0.0	1.0	100.0	1	9.823858333333332	2.0436	2.8	12.0	12.0	991.0;	%17 biomass
	18	0.0	0.0	0.0	-0.0	1.0	100.0	1	17.151956690143052	0.0	0.0	72.0	72.0	261.0;	%17 onwind
	18	0.0	0.0	0.0	-0.0	1.0	100.0	1	1.800123335934555	0.0	0.0	67.0	67.0	354.0;	%17 solar
	19	0.0	0.0	0.0	-0.0	1.0	100.0	1	215.0	78.4	5.0	2.0	2.0	44.0;	%18 CCGT
	19	0.0	0.0	0.0	-0.0	1.0	100.0	1	78.4	78.4	2.8	1.0	1.0	44.0;	%18 OCGT
	19	0.0	0.0	0.0	-0.0	1.0	100.0	1	9.530666666666667	2.0436	2.8	18.0	18.0	974.0;	%18 biomass
	19	0.0	0.0	0.0	-0.0	1.0	100.0	1	17.979717640799628	0.0	0.0	53.0	53.0	257.0;	%18 onwind
	19	0.0	0.0	0.0	-0.0	1.0	100.0	1	2.1704548157993258	0.0	0.0	81.0	81.0	348.0;	%18 solar
	20	0.0	0.0	0.0	-0.0	1.0	100.0	1	212.9294117647059	78.4	5.0	17.0	17.0	70.0;	%19 CCGT
	20	0.0	0.0	0.0	-0.0	1.0	100.0	1	168.36975	78.4	2.8	4.0	4.0	70.0;	%19 OCGT
	20	0.0	0.0	0.0	-0.0	1.0	100.0	1	9.898548538461538	2.0436	2.8	13.0	13.0	1562.0;	%19 biomass
	20	0.0	0.0	0.0	-0.0	1.0	100.0	1	22.45022133335059	0.0	0.0	49.0	49.0	411.0;	%19 onwind
	20	0.0	0.0	0.0	-0.0	1.0	100.0	1	1.6793506685785622	0.0	0.0	56.0	56.0	558.0;	%19 solar
	3	0.0	0.0	0.0	-0.0	1.0	100.0	1	199.975	78.4	5.0	4.0	4.0	81.0;	%2 CCGT
	3	0.0	0.0	0.0	-0.0	1.0	100.0	1	138.3	78.4	2.8	1.0	1.0	81.0;	%2 OCGT
	3	0.0	0.0	0.0	-0.0	1.0	100.0	1	9.908959523809523	2.0436	2.8	63.0	63.0	1794.0;	%2 biomass
	3	0.0	0.0	0.0	-0.0	1.0	100.0	1	16.250397735653177	0.0	0.0	82.0	82.0	472.0;	%2 onwind
	3	0.0	0.0	0.0	-0.0	1.0	100.0	1	2.0193695504847304	0.0	0.0	155.0	155.0	641.0;	%2 solar
	4	0.0	0.0	0.0	-0.0	1.0	100.0	1	192.35999999999999	78.4	5.0	5.0	5.0	139.0;	%3 CCGT
	4	0.0	0.0	0.0	-0.0	1.0	100.0	1	78.4	78.4	2.8	1.0	1.0	139.0;	%3 OCGT
	4	0.0	0.0	0.0	-0.0	1.0	100.0	1	9.850204846153847	2.0436	2.8	65.0	65.0	3109.0;	%3 biomass
	4	0.0	0.0	0.0	-0.0	1.0	100.0	1	14.110965440883627	0.0	0.0	350.0	350.0	1829.0;	%3 offwind
	4	0.0	0.0	0.0	-0.0	1.0	100.0	1	27.421212091599575	0.0	0.0	156.0	156.0	818.0;	%3 onwind
	4	0.0	0.0	0.0	-0.0	1.0	100.0	1	1.6150147250517055	0.0	0.0	73.0	73.0	1111.0;	%3 solar
	5	0.0	0.0	0.0	-0.0	1.0	100.0	1	206.15833333333333	78.4	5.0	12.0	12.0	58.0;	%4 CCGT
	5	0.0	0.0	0.0	-0.0	1.0	100.0	1	127.45500000000001	78.4	2.8	2.0	2.0	58.0;	%4 OCGT
	5	0.0	0.0	0.0	-0.0	1.0	100.0	1	9.779668421052632	2.0436	2.8	38.0	38.0	1279.0;	%4 biomass
	5	0.0	0.0	0.0	-0.0	1.0	100.0	1	7.884121948809138	0.0	0.0	16.0	16.0	337.0;	%4 onwind
	5	0.0	0.0	0.0	-0.0	1.0	100.0	1	2.21519644048362	0.0	0.0	98.0	98.0	457.0;	%4 solar
	6	0.0	0.0	0.0	-0.0	1.0	100.0	1	195.8	78.4	5.0	2.0	2.0	35.0;	%5 CCGT
	6	0.0	0.0	0.0	-0.0	1.0	100.0	1	89.0	78.4	2.8	1.0	1.0	35.0;	%5 OCGT
	6	0.0	0.0	0.0	-0.0	1.0	100.0	1	9.905931481481481	2.0436	2.8	27.0	27.0	779.0;	%5 biomass
	6	0.0	0.0	0.0	-0.0	1.0	100.0	1	9.28571076434178	0.0	0.0	17.0	17.0	205.0;	%5 onwind
	6	0.0	0.0	0.0	-0.0	1.0	100.0	1	1.9800588967658326	0.0	0.0	90.0	90.0	278.0;	%5 solar
	7	0.0	0.0	0.0	-0.0	1.0	100.0	1	212.0017272727273	78.4	5.0	11.0	11.0	73.0;	%6 CCGT
	7	0.0	0.0	0.0	-0.0	1.0	100.0	1	158.5	78.4	2.8	1.0	1.0	73.0;	%6 OCGT
	7	0.0	0.0	0.0	-0.0	1.0	100.0	1	9.929266666666667	2.0436	2.8	45.0	45.0	1622.0;	%6 biomass
	7	0.0	0.0	0.0	-0.0	1.0	100.0	1	24.529155479314287	0.0	0.0	70.0	70.0	427.0;	%6 onwind
	7	0.0	0.0	0.0	-0.0	1.0	100.0	1	1.6226361425981086	0.0	0.0	91.0	91.0	580.0;	%6 solar
	8	0.0	0.0	0.0	-0.0	1.0	100.0	1	195.0	78.4	5.0	2.0	2.0	76.0;	%7 CCGT
	8	0.0	0.0	0.0	-0.0	1.0	100.0	1	123.26	78.4	2.8	2.0	2.0	76.0;	%7 OCGT
	8	0.0	0.0	0.0	-0.0	1.0	100.0	1	9.831483333333335	2.0436	2.8	54.0	54.0	1682.0;	%7 biomass
	8	0.0	0.0	0.0	-0.0	1.0	100.0	1	19.633710741301915	0.0	0.0	109.0	109.0	443.0;	%7 onwind
	8	0.0	0.0	0.0	-0.0	1.0	100.0	1	1.9014485039092819	0.0	0.0	111.0	111.0	601.0;	%7 solar
	9	0.0	0.0	0.0	-0.0	1.0	100.0	1	184.222	78.4	5.0	5.0	5.0	101.0;	%8 CCGT
	9	0.0	0.0	0.0	-0.0	1.0	100.0	1	221.50666666666666	78.4	2.8	3.0	3.0	101.0;	%8 OCGT
	9	0.0	0.0	0.0	-0.0	1.0	100.0	1	9.856493333333333	2.0436	2.8	60.0	60.0	2241.0;	%8 biomass
	9	0.0	0.0	0.0	-0.0	1.0	100.0	1	18.689745924680686	0.0	0.0	113.0	113.0	590.0;	%8 onwind
	9	0.0	0.0	0.0	-0.0	1.0	100.0	1	2.088238109608173	0.0	0.0	170.0	170.0	801.0;	%8 solar
	10	0.0	0.0	0.0	-0.0	1.0	100.0	1	209.9742857142857	78.4	5.0	14.0	14.0	112.0;	%9 CCGT
	10	0.0	0.0	0.0	-0.0	1.0	100.0	1	79.4	78.4	2.8	1.0	1.0	112.0;	%9 OCGT
	10	0.0	0.0	0.0	-0.0	1.0	100.0	1	9.998257142857144	2.0436	2.8	70.0	70.0	2491.0;	%9 biomass
	10	0.0	0.0	0.0	-0.0	1.0	100.0	1	22.696450286877965	0.0	0.0	133.0	133.0	656.0;	%9 onwind
	10	0.0	0.0	0.0	-0.0	1.0	100.0	1	1.6856506991320814	0.0	0.0	132.0	132.0	890.0;	%9 solar
	6	0.0	0.0	0.0	-0.0	1.0	100.0	1	1776.8	266.52	3.5	1	1	1;	%DE1 0 PHS
	6	0.0	0.0	0.0	-0.0	1.0	100.0	1	-266.52	-1776.8	3.5	1	1	1;	%DE1 0 PHS (pump mode)
	18	0.0	0.0	0.0	-0.0	1.0	100.0	1	1294.0	194.1	3.5	1	1	1;	%DE1 12 PHS
	18	0.0	0.0	0.0	-0.0	1.0	100.0	1	-194.1	-1294.0	3.5	1	1	1;	%DE1 12 PHS (pump mode)
	10	0.0	0.0	0.0	-0.0	1.0	100.0	1	7.42	1.113	3.5	1	1	1;	%DE1 14 PHS
	10	0.0	0.0	0.0	-0.0	1.0	100.0	1	-1.113	-7.42	3.5	1	1	1;	%DE1 14 PHS (pump mode)
	8	0.0	0.0	0.0	-0.0	1.0	100.0	1	220.0	33.0	3.5	1	1	1;	%DE1 17 PHS
	8	0.0	0.0	0.0	-0.0	1.0	100.0	1	-33.0	-220.0	3.5	1	1	1;	%DE1 17 PHS (pump mode)
	9	0.0	0.0	0.0	-0.0	1.0	100.0	1	960.0	144.0	3.5	1	1	1;	%DE1 2 PHS
	9	0.0	0.0	0.0	-0.0	1.0	100.0	1	-144.0	-960.0	3.5	1	1	1;	%DE1 2 PHS (pump mode)
	9	0.0	0.0	0.0	-0.0	1.0	100.0	1	39.8	5.97	3.5	1	1	1;	%DE1 20 PHS
	9	0.0	0.0	0.0	-0.0	1.0	100.0	1	-5.97	-39.8	3.5	1	1	1;	%DE1 20 PHS (pump mode)
	3	0.0	0.0	0.0	-0.0	1.0	100.0	1	160.0	24.0	3.5	1	1	1;	%DE1 21 PHS
	3	0.0	0.0	0.0	-0.0	1.0	100.0	1	-24.0	-160.0	3.5	1	1	1;	%DE1 21 PHS (pump mode)
	5	0.0	0.0	0.0	-0.0	1.0	100.0	1	124.0	18.599999999999998	3.5	1	1	1;	%DE1 25 hydro
	17	0.0	0.0	0.0	-0.0	1.0	100.0	1	167.1	25.064999999999998	3.5	1	1	1;	%DE1 27 PHS
	17	0.0	0.0	0.0	-0.0	1.0	100.0	1	-25.064999999999998	-167.1	3.5	1	1	1;	%DE1 27 PHS (pump mode)
	6	0.0	0.0	0.0	-0.0	1.0	100.0	1	109.0	16.349999999999998	3.5	1	1	1;	%DE1 31 PHS
	6	0.0	0.0	0.0	-0.0	1.0	100.0	1	-16.349999999999998	-109.0	3.5	1	1	1;	%DE1 31 PHS (pump mode)
	10	0.0	0.0	0.0	-0.0	1.0	100.0	1	480.0	72.0	3.5	1	1	1;	%DE1 33 PHS
	10	0.0	0.0	0.0	-0.0	1.0	100.0	1	-72.0	-480.0	3.5	1	1	1;	%DE1 33 PHS (pump mode)
	5	0.0	0.0	0.0	-0.0	1.0	100.0	1	92.0	13.799999999999999	3.5	1	1	1;	%DE1 36 PHS
	5	0.0	0.0	0.0	-0.0	1.0	100.0	1	-13.799999999999999	-92.0	3.5	1	1	1;	%DE1 36 PHS (pump mode)
	2	0.0	0.0	0.0	-0.0	1.0	100.0	1	278.0	41.699999999999996	3.5	1	1	1;	%DE1 43 PHS
	2	0.0	0.0	0.0	-0.0	1.0	100.0	1	-41.699999999999996	-278.0	3.5	1	1	1;	%DE1 43 PHS (pump mode)
	14	0.0	0.0	0.0	-0.0	1.0	100.0	1	164.0	24.599999999999998	3.5	1	1	1;	%DE1 49 PHS
	14	0.0	0.0	0.0	-0.0	1.0	100.0	1	-24.599999999999998	-164.0	3.5	1	1	1;	%DE1 49 PHS (pump mode)
	8	0.0	0.0	0.0	-0.0	1.0	100.0	1	79.7	11.955	3.5	1	1	1;	%DE1 50 PHS
	8	0.0	0.0	0.0	-0.0	1.0	100.0	1	-11.955	-79.7	3.5	1	1	1;	%DE1 50 PHS (pump mode)
	3	0.0	0.0	0.0	-0.0	1.0	100.0	1	399.8	59.97	3.5	1	1	1;	%DE1 52 PHS
	3	0.0	0.0	0.0	-0.0	1.0	100.0	1	-59.97	-399.8	3.5	1	1	1;	%DE1 52 PHS (pump mode)
	7	0.0	0.0	0.0	-0.0	1.0	100.0	1	162.0	24.3	3.5	1	1	1;	%DE1 54 PHS
	7	0.0	0.0	0.0	-0.0	1.0	100.0	1	-24.3	-162.0	3.5	1	1	1;	%DE1 54 PHS (pump mode)
	14	0.0	0.0	0.0	-0.0	1.0	100.0	1	90.0	13.5	3.5	1	1	1;	%DE1 61 PHS
	14	0.0	0.0	0.0	-0.0	1.0	100.0	1	-13.5	-90.0	3.5	1	1	1;	%DE1 61 PHS (pump mode)
	3	0.0	0.0	0.0	-0.0	1.0	100.0	1	1060.0	159.0	3.5	1	1	1;	%DE1 7 PHS
	3	0.0	0.0	0.0	-0.0	1.0	100.0	1	-159.0	-1060.0	3.5	1	1	1;	%DE1 7 PHS (pump mode)
	13	0.0	0.0	0.0	-0.0	1.0	100.0	1	45.5	6.825	3.5	1	1	1;	%DE1 71 hydro
	16	0.0	0.0	0.0	-0.0	1.0	100.0	1	120.0	18.0	3.5	1	1	1;	%DE1 76 PHS
	16	0.0	0.0	0.0	-0.0	1.0	100.0	1	-18.0	-120.0	3.5	1	1	1;	%DE1 76 PHS (pump mode)
];

%% generator cost data
%	2	startup	shutdown	n	c(n-1)	...	c0	investment
mpc.gencost = [
	2	4949.446718491978	1979.778687396791	3	0.0	968.7701543339161	0.0	0.0	18075399.248142906;	%0 biomass
	2	0.0	0.0	3	0.0	1.6037386516584207	0.0	0.0	12314214.051708844;	%0 offwind
	2	0.0	0.0	3	0.0	1.5663363448516183	0.0	0.0	6245582.721297808;	%0 onwind
	2	0.0	0.0	3	0.0	1.2388259459302067	0.0	0.0	2314134.630847289;	%0 solar
	2	577388.6814954974	230955.47259819895	3	0.0	2945.8606198749862	0.0	0.0	6436802.404054909;	%1 CCGT
	2	704794.848628954	281917.9394515816	3	0.0	3595.892084841602	0.0	0.0	2931203.6984829623;	%1 OCGT
	2	4949.2489979722795	1979.6995991889119	3	0.0	968.731453899448	0.0	0.0	18075399.2481429;	%1 biomass
	2	0.0	0.0	3	0.0	1.5977009094733825	0.0	0.0	6245582.721297808;	%1 onwind
	2	0.0	0.0	3	0.0	1.2960849615743386	0.0	0.0	2314134.630847289;	%1 solar
	2	505913.0150866493	202365.2060346597	3	0.0	2581.188852482904	0.0	0.0	6436802.404054909;	%10 CCGT
	2	733863.4835059645	293545.3934023858	3	0.0	3744.2014464590025	0.0	0.0	2931203.6984829623;	%10 OCGT
	2	4949.3400442203965	1979.7360176881584	3	0.0	968.749274656566	0.0	0.0	18075399.2481429;	%10 biomass
	2	0.0	0.0	3	0.0	1.6050507551912043	0.0	0.0	12156951.417149248;	%10 offwind
	2	0.0	0.0	3	0.0	1.6119811025193695	0.0	0.0	6245582.72129781;	%10 onwind
	2	0.0	0.0	3	0.0	1.288448070592931	0.0	0.0	2314134.630847289;	%10 solar
	2	472067.70815555286	188827.08326222113	3	0.0	2408.508715079351	0.0	0.0	6436802.404054909;	%11 CCGT
	2	700784.8172731916	280313.92690927663	3	0.0	3575.4327411897525	0.0	0.0	2931203.6984829623;	%11 OCGT
	2	4949.449503483636	1979.7798013934544	3	0.0	968.7706994487446	0.0	0.0	18075399.248142898;	%11 biomass
	2	0.0	0.0	3	0.0	1.6454243583979564	0.0	0.0	12087361.836619325;	%11 offwind
	2	0.0	0.0	3	0.0	1.5669426693536246	0.0	0.0	6245582.721297809;	%11 onwind
	2	0.0	0.0	3	0.0	1.3062011663583348	0.0	0.0	2314134.630847289;	%11 solar
	2	697008.2360485634	278803.29441942537	3	0.0	3556.164469635527	0.0	0.0	2931203.6984829623;	%12 OCGT
	2	4949.355435984255	1979.7421743937018	3	0.0	968.7522873329917	0.0	0.0	18075399.2481429;	%12 biomass
	2	0.0	0.0	3	0.0	1.6260369393568725	0.0	0.0	6245582.721297809;	%12 onwind
	2	0.0	0.0	3	0.0	1.3006569707693258	0.0	0.0	2314134.630847289;	%12 solar
	2	524020.30691030476	209608.12276412192	3	0.0	2673.57299444033	0.0	0.0	6436802.404054909;	%13 CCGT
	2	728935.281206225	291574.11248249	3	0.0	3719.0575571746176	0.0	0.0	2931203.6984829623;	%13 OCGT
	2	4949.31000391776	1979.7240015671039	3	0.0	968.7433947774045	0.0	0.0	18075399.2481429;	%13 biomass
	2	0.0	0.0	3	0.0	1.6529005184236563	0.0	0.0	6245582.721297809;	%13 onwind
	2	0.0	0.0	3	0.0	1.3158367409850962	0.0	0.0	2314134.630847289;	%13 solar
	2	540000.2401260795	216000.0960504318	3	0.0	2755.1032659493853	0.0	0.0	6436802.404054909;	%14 CCGT
	2	728413.4085296458	291365.3634118583	3	0.0	3716.3949414777844	0.0	0.0	2931203.6984829623;	%14 OCGT
	2	4949.107138792546	1979.6428555170182	3	0.0	968.7036873737611	0.0	0.0	18075399.2481429;	%14 biomass
	2	0.0	0.0	3	0.0	1.6071061731041436	0.0	0.0	12730134.47021485;	%14 offwind
	2	0.0	0.0	3	0.0	1.5912001626409347	0.0	0.0	6245582.72129781;	%14 onwind
	2	0.0	0.0	3	0.0	1.27204117156045	0.0	0.0	2314134.630847289;	%14 solar
	2	484967.8277463682	193987.13109854728	3	0.0	2474.3256517671844	0.0	0.0	6436802.404054909;	%15 CCGT
	2	680212.3912593274	272084.95650373097	3	0.0	3470.4713839761607	0.0	0.0	2931203.6984829623;	%15 OCGT
	2	4949.366425393312	1979.746570157325	3	0.0	968.7544383232164	0.0	0.0	18075399.2481429;	%15 biomass
	2	0.0	0.0	3	0.0	1.6270780124977278	0.0	0.0	13285165.117475417;	%15 offwind
	2	0.0	0.0	3	0.0	1.61061746915021	0.0	0.0	6245582.72129781;	%15 onwind
	2	0.0	0.0	3	0.0	1.2570625342537738	0.0	0.0	2314134.630847289;	%15 solar
	2	507652.1173512209	203060.84694048835	3	0.0	2590.0618232205143	0.0	0.0	6436802.404054909;	%16 CCGT
	2	702398.8615908654	280959.54463634617	3	0.0	3583.6676611778844	0.0	0.0	2931203.698482963;	%16 OCGT
	2	4949.247161883322	1979.6988647533292	3	0.0	968.7310945162111	0.0	0.0	18075399.248142906;	%16 biomass
	2	0.0	0.0	3	0.0	1.6078896075255307	0.0	0.0	6245582.721297809;	%16 onwind
	2	0.0	0.0	3	0.0	1.293000638547967	0.0	0.0	2314134.6308472897;	%16 solar
	2	521932.55140386365	208773.02056154548	3	0.0	2662.921180631957	0.0	0.0	6436802.404054909;	%17 CCGT
	2	684726.17642126	273890.47056850395	3	0.0	3493.5009001084686	0.0	0.0	2931203.6984829623;	%17 OCGT
	2	4949.30305248844	1979.7212209953757	3	0.0	968.7420341531492	0.0	0.0	18075399.2481429;	%17 biomass
	2	0.0	0.0	3	0.0	1.656987408336914	0.0	0.0	6245582.72129781;	%17 onwind
	2	0.0	0.0	3	0.0	1.3249594452636655	0.0	0.0	2314134.6308472897;	%17 solar
	2	547102.9446712694	218841.1778685078	3	0.0	2791.3415544452523	0.0	0.0	6436802.404054909;	%18 CCGT
	2	690055.131137496	276022.05245499837	3	0.0	3520.6894445790604	0.0	0.0	2931203.6984829623;	%18 OCGT
	2	4949.392634409185	1979.757053763674	3	0.0	968.7595682930485	0.0	0.0	18075399.2481429;	%18 biomass
	2	0.0	0.0	3	0.0	1.6191236935869697	0.0	0.0	6245582.721297809;	%18 onwind
	2	0.0	0.0	3	0.0	1.2999632249698387	0.0	0.0	2314134.630847289;	%18 solar
	2	512643.091092785	205057.236437114	3	0.0	2615.5259749631887	0.0	0.0	6436802.404054909;	%19 CCGT
	2	718259.3034819444	287303.72139277775	3	0.0	3664.5882830711444	0.0	0.0	2931203.6984829623;	%19 OCGT
	2	4949.2785907719735	1979.7114363087896	3	0.0	968.7372461875071	0.0	0.0	18075399.2481429;	%19 biomass
	2	0.0	0.0	3	0.0	1.6519123309955528	0.0	0.0	6245582.721297808;	%19 onwind
	2	0.0	0.0	3	0.0	1.2921456486476082	0.0	0.0	2314134.630847289;	%19 solar
	2	548832.8255702552	219533.1302281021	3	0.0	2800.1674773992613	0.0	0.0	6436802.404054909;	%2 CCGT
	2	725351.0208476526	290140.408339061	3	0.0	3700.770514528839	0.0	0.0	2931203.698482963;	%2 OCGT
	2	4949.254385892484	1979.7017543569937	3	0.0	968.7325084933419	0.0	0.0	18075399.2481429;	%2 biomass
	2	0.0	0.0	3	0.0	1.627948689143124	0.0	0.0	6245582.721297809;	%2 onwind
	2	0.0	0.0	3	0.0	1.2962961906852446	0.0	0.0	2314134.630847289;	%2 solar
	2	598514.9011007446	239405.96044029787	3	0.0	3053.6474545956357	0.0	0.0	6436802.404054909;	%3 CCGT
	2	744507.9073746365	297803.1629498546	3	0.0	3798.509731503247	0.0	0.0	2931203.6984829623;	%3 OCGT
	2	4949.109809398179	1979.643923759272	3	0.0	968.7042100994676	0.0	0.0	18075399.2481429;	%3 biomass
	2	0.0	0.0	3	0.0	1.61032996138574	0.0	0.0	13226015.503005747;	%3 offwind
	2	0.0	0.0	3	0.0	1.6566496091118406	0.0	0.0	6245582.72129781;	%3 onwind
	2	0.0	0.0	3	0.0	1.2980599056420796	0.0	0.0	2314134.630847289;	%3 solar
	2	521733.2447135681	208693.29788542728	3	0.0	2661.904309763103	0.0	0.0	6436802.404054909;	%4 CCGT
	2	713514.7403715198	285405.8961486079	3	0.0	3640.3813284261214	0.0	0.0	2931203.6984829623;	%4 OCGT
	2	4949.403767501416	1979.7615070005666	3	0.0	968.7617474068147	0.0	0.0	18075399.2481429;	%4 biomass
	2	0.0	0.0	3	0.0	1.620437495736406	0.0	0.0	6245582.721297809;	%4 onwind
	2	0.0	0.0	3	0.0	1.2703950125535959	0.0	0.0	2314134.630847289;	%4 solar
	2	535888.0394569711	214355.21578278847	3	0.0	2734.122650290669	0.0	0.0	6436802.404054909;	%5 CCGT
	2	700657.9614414676	280263.184576587	3	0.0	3574.7855175585078	0.0	0.0	2931203.6984829623;	%5 OCGT
	2	4949.3379162665715	1979.7351665066285	3	0.0	968.7488581457371	0.0	0.0	18075399.248142898;	%5 biomass
	2	0.0	0.0	3	0.0	1.6007372795679358	0.0	0.0	6245582.721297809;	%5 onwind
	2	0.0	0.0	3	0.0	1.301105354764766	0.0	0.0	2314134.630847289;	%5 solar
	2	525432.9626767501	210173.18507070007	3	0.0	2680.7804218201536	0.0	0.0	6436802.404054909;	%6 CCGT
	2	725683.518277048	290273.4073108192	3	0.0	3702.466929984939	0.0	0.0	2931203.698482963;	%6 OCGT
	2	4949.419986267441	1979.7679945069765	3	0.0	968.7649219548721	0.0	0.0	18075399.2481429;	%6 biomass
	2	0.0	0.0	3	0.0	1.6256299348769725	0.0	0.0	6245582.721297809;	%6 onwind
	2	0.0	0.0	3	0.0	1.3272256987569002	0.0	0.0	2314134.630847289;	%6 solar
	2	498034.3800169536	199213.75200678146	3	0.0	2540.9917347803757	0.0	0.0	6436802.404054909;	%7 CCGT
	2	722581.0698122357	289032.42792489426	3	0.0	3686.6381112869162	0.0	0.0	2931203.6984829623;	%7 OCGT
	2	4949.41468610848	1979.7658744433918	3	0.0	968.7638845387511	0.0	0.0	18075399.248142898;	%7 biomass
	2	0.0	0.0	3	0.0	1.6434109599360127	0.0	0.0	6245582.721297809;	%7 onwind
	2	0.0	0.0	3	0.0	1.2967567657024477	0.0	0.0	2314134.6308472897;	%7 solar
	2	563098.2561744321	225239.30246977284	3	0.0	2872.9502866042453	0.0	0.0	6436802.404054909;	%8 CCGT
	2	738436.0276857533	295374.41107430134	3	0.0	3767.530753498742	0.0	0.0	2931203.6984829623;	%8 OCGT
	2	4949.424094630727	1979.7696378522908	3	0.0	968.7657260972259	0.0	0.0	18075399.2481429;	%8 biomass
	2	0.0	0.0	3	0.0	1.6612488582971117	0.0	0.0	6245582.721297809;	%8 onwind
	2	0.0	0.0	3	0.0	1.2951015274750177	0.0	0.0	2314134.630847289;	%8 solar
	2	539963.4864654625	215985.39458618502	3	0.0	2754.9157472727675	0.0	0.0	6436802.404054909;	%9 CCGT
	2	728559.4166795824	291423.766671833	3	0.0	3717.1398810182777	0.0	0.0	2931203.6984829623;	%9 OCGT
	2	4949.229852506836	1979.6919410027347	3	0.0	968.7277064996745	0.0	0.0	18075399.2481429;	%9 biomass
	2	0.0	0.0	3	0.0	1.6156225916150075	0.0	0.0	6245582.721297808;	%9 onwind
	2	0.0	0.0	3	0.0	1.3101956301357354	0.0	0.0	2314134.630847289;	%9 solar
	2	0.0	0.0	3	0.0	0.6284256502255734	0.0	0.0	11527439.080266615;	%DE1 0 PHS
	2	0.0	0.0	3	0.0	0.6284256502255734	0.0	0.0	-11527439.080266615;	%DE1 0 PHS (pump mode)
	2	0.0	0.0	3	0.0	0.6846577653129468	0.0	0.0	11527439.080266615;	%DE1 12 PHS
	2	0.0	0.0	3	0.0	0.6846577653129468	0.0	0.0	-11527439.080266615;	%DE1 12 PHS (pump mode)
	2	0.0	0.0	3	0.0	0.714403664417938	0.0	0.0	11527439.080266615;	%DE1 14 PHS
	2	0.0	0.0	3	0.0	0.714403664417938	0.0	0.0	-11527439.080266615;	%DE1 14 PHS (pump mode)
	2	0.0	0.0	3	0.0	0.5965988662094956	0.0	0.0	11527439.080266615;	%DE1 17 PHS
	2	0.0	0.0	3	0.0	0.5965988662094956	0.0	0.0	-11527439.080266615;	%DE1 17 PHS (pump mode)
	2	0.0	0.0	3	0.0	0.7097796354423025	0.0	0.0	11527439.080266615;	%DE1 2 PHS
	2	0.0	0.0	3	0.0	0.7097796354423025	0.0	0.0	-11527439.080266615;	%DE1 2 PHS (pump mode)
	2	0.0	0.0	3	0.0	0.6828084897201244	0.0	0.0	11527439.080266615;	%DE1 20 PHS
	2	0.0	0.0	3	0.0	0.6828084897201244	0.0	0.0	-11527439.080266615;	%DE1 20 PHS (pump mode)
	2	0.0	0.0	3	0.0	0.6499430458744326	0.0	0.0	11527439.080266615;	%DE1 21 PHS
	2	0.0	0.0	3	0.0	0.6499430458744326	0.0	0.0	-11527439.080266615;	%DE1 21 PHS (pump mode)
	2	0.0	0.0	3	0.0	0.6597408988397827	0.0	0.0	11527439.080266615;	%DE1 25 hydro
	2	0.0	0.0	3	0.0	0.6523152946814814	0.0	0.0	11527439.080266615;	%DE1 27 PHS
	2	0.0	0.0	3	0.0	0.6523152946814814	0.0	0.0	-11527439.080266615;	%DE1 27 PHS (pump mode)
	2	0.0	0.0	3	0.0	0.635208296018449	0.0	0.0	11527439.080266615;	%DE1 31 PHS
	2	0.0	0.0	3	0.0	0.635208296018449	0.0	0.0	-11527439.080266615;	%DE1 31 PHS (pump mode)
	2	0.0	0.0	3	0.0	0.6235329632914067	0.0	0.0	11527439.080266615;	%DE1 33 PHS
	2	0.0	0.0	3	0.0	0.6235329632914067	0.0	0.0	-11527439.080266615;	%DE1 33 PHS (pump mode)
	2	0.0	0.0	3	0.0	0.5971241438787255	0.0	0.0	11527439.080266615;	%DE1 36 PHS
	2	0.0	0.0	3	0.0	0.5971241438787255	0.0	0.0	-11527439.080266615;	%DE1 36 PHS (pump mode)
	2	0.0	0.0	3	0.0	0.6586093854720892	0.0	0.0	11527439.080266615;	%DE1 43 PHS
	2	0.0	0.0	3	0.0	0.6586093854720892	0.0	0.0	-11527439.080266615;	%DE1 43 PHS (pump mode)
	2	0.0	0.0	3	0.0	0.6045712350407612	0.0	0.0	11527439.080266615;	%DE1 49 PHS
	2	0.0	0.0	3	0.0	0.6045712350407612	0.0	0.0	-11527439.080266615;	%DE1 49 PHS (pump mode)
	2	0.0	0.0	3	0.0	0.6082084596154181	0.0	0.0	11527439.080266615;	%DE1 50 PHS
	2	0.0	0.0	3	0.0	0.6082084596154181	0.0	0.0	-11527439.080266615;	%DE1 50 PHS (pump mode)
	2	0.0	0.0	3	0.0	0.7048362807476564	0.0	0.0	11527439.080266615;	%DE1 52 PHS
	2	0.0	0.0	3	0.0	0.7048362807476564	0.0	0.0	-11527439.080266615;	%DE1 52 PHS (pump mode)
	2	0.0	0.0	3	0.0	0.6452229096489388	0.0	0.0	11527439.080266615;	%DE1 54 PHS
	2	0.0	0.0	3	0.0	0.6452229096489388	0.0	0.0	-11527439.080266615;	%DE1 54 PHS (pump mode)
	2	0.0	0.0	3	0.0	0.670585017828181	0.0	0.0	11527439.080266615;	%DE1 61 PHS
	2	0.0	0.0	3	0.0	0.670585017828181	0.0	0.0	-11527439.080266615;	%DE1 61 PHS (pump mode)
	2	0.0	0.0	3	0.0	0.6798377478690185	0.0	0.0	11527439.080266615;	%DE1 7 PHS
	2	0.0	0.0	3	0.0	0.6798377478690185	0.0	0.0	-11527439.080266615;	%DE1 7 PHS (pump mode)
	2	0.0	0.0	3	0.0	0.6036155650904317	0.0	0.0	11527439.080266615;	%DE1 71 hydro
	2	0.0	0.0	3	0.0	0.702602110515992	0.0	0.0	11527439.080266615;	%DE1 76 PHS
	2	0.0	0.0	3	0.0	0.702602110515992	0.0	0.0	-11527439.080266615;	%DE1 76 PHS (pump mode)
];
%% branch data
%	fbus	tbus	r	x	b	rateA	rateB	rateC	ratio	angle	status	angmin	angmax
mpc.branch = [
	1	15	0.004446514507151612	0.03646141895864322	3.1100887306422827e-06	983.1120383760949	983.1120383760949	983.1120383760949	0	0	1	-60	60;
	1	9	0.0066236548409098605	0.05431396969546085	4.632876884410344e-06	983.1120383760949	983.1120383760949	983.1120383760949	0	0	1	-60	60;
	2	14	0.00036342889364109445	0.002980116927856975	4.3562433442329304e-05	12869.830320559791	12869.830320559791	12869.830320559791	0	0	1	-60	60;
	2	18	0.0005977660653844128	0.004901681736152186	1.995841906294707e-05	6792.410446962112	6792.410446962112	6792.410446962112	0	0	1	-60	60;
	2	20	0.0007594657170519633	0.0062276188798261	2.0299890501867426e-05	6077.419873597678	6077.419873597678	6077.419873597678	0	0	1	-60	60;
	2	7	0.0010122549625824677	0.008300490693176236	2.7056737965948302e-05	6077.419873597678	6077.419873597678	6077.419873597678	0	0	1	-60	60;
	2	8	0.002010615542990133	0.016487047452519093	1.6782780884218432e-05	3396.205223481056	3396.205223481056	3396.205223481056	0	0	1	-60	60;
	2	10	0.0005241817991184883	0.004298290752771604	5.3598534430142926e-05	11886.718282183694	11886.718282183694	11886.718282183694	0	0	1	-60	60;
	11	15	0.0011444155077600761	0.009384207163632623	2.381518341854371e-05	5362.429300233245	5362.429300233245	5362.429300233245	0	0	1	-60	60;
	11	16	0.0014237338026427768	0.01167461718167077	1.1884028515801675e-05	3396.205223481056	3396.205223481056	3396.205223481056	0	0	1	-60	60;
	11	3	0.003092914165728497	0.025361896158973676	2.581682058416841e-05	3396.205223481056	3396.205223481056	3396.205223481056	0	0	1	-60	60;
	11	8	0.0021722130471396196	0.017812146986544878	1.8131649151467633e-05	3396.205223481056	3396.205223481056	3396.205223481056	0	0	1	-60	60;
	11	9	0.0008540008001274558	0.007002806561045137	2.8513672548599497e-05	6792.410446962112	6792.410446962112	6792.410446962112	0	0	1	-60	60;
	12	16	0.0006025796753211821	0.004941153337633693	2.01191375277228e-05	6792.410446962112	6792.410446962112	6792.410446962112	0	0	1	-60	60;
	13	14	0.0007568790811307346	0.006206408465272025	2.527093917830723e-05	6792.410446962112	6792.410446962112	6792.410446962112	0	0	1	-60	60;
	13	5	0.00112366070458674	0.009214017777611268	9.379292554975687e-06	3396.205223481056	3396.205223481056	3396.205223481056	0	0	1	-60	60;
	13	6	0.001555406933486283	0.012754336854587522	1.2983115465064572e-05	3396.205223481056	3396.205223481056	3396.205223481056	0	0	1	-60	60;
	14	18	0.001184704521406836	0.009714577075536055	2.224986872573658e-05	5094.307835221583	5094.307835221583	5094.307835221583	0	0	1	-60	60;
	14	3	0.0007624122702652717	0.00625178061617523	4.951870783337223e-05	9473.625097078735	9473.625097078735	9473.625097078735	0	0	1	-60	60;
	14	6	0.00023546671415108084	0.001930827056038863	7.774867939575865e-05	21360.343379262427	21360.343379262427	21360.343379262427	0	0	1	-60	60;
	15	9	0.003025981227480034	0.02481304606533628	2.5258125591245843e-05	3396.205223481056	3396.205223481056	3396.205223481056	0	0	1	-60	60;
	16	4	0.0005576796429122965	0.004572973071880832	2.4400065523473356e-05	7775.522485338205	7775.522485338205	7775.522485338205	0	0	1	-60	60;
	16	8	0.0022733219892160884	0.018641240311571924	1.8975614188055853e-05	3396.205223481056	3396.205223481056	3396.205223481056	0	0	1	-60	60;
	17	3	0.0016284779498957418	0.013353519189145081	2.260173289752433e-05	4379.317261857151	4379.317261857151	4379.317261857151	0	0	1	-60	60;
	17	5	0.0005083825972120511	0.004168737297138818	1.3588646366447507e-05	6077.419873597679	6077.419873597679	6077.419873597679	0	0	1	-60	60;
	18	20	0.00046182876264664046	0.0037869958537024525	3.469431966193496e-05	10188.615670443167	10188.615670443167	10188.615670443167	0	0	1	-60	60;
	19	9	0.00013384008124748897	0.0010974886662294095	7.149917892347253e-05	27169.641787848446	27169.641787848446	27169.641787848446	0	0	1	-60	60;
	20	7	0.00018254458558985453	0.001496865601836807	3.930531396397533e-05	17249.14758241694	17249.14758241694	17249.14758241694	0	0	1	-60	60;
	3	5	0.0014319862400107694	0.01174228716808831	3.8275807873511336e-05	6077.419873597678	6077.419873597678	6077.419873597678	0	0	1	-60	60;
	3	8	0.0011466492608282874	0.009402523938791957	1.591440665318426e-05	4379.317261857151	4379.317261857151	4379.317261857151	0	0	1	-60	60;
	3	9	0.0005405235524081651	0.004432293129746955	4.8820513613460305e-05	11171.727708819262	11171.727708819262	11171.727708819262	0	0	1	-60	60;
	4	7	0.0018507033179182048	0.01517576720692928	1.5447979786392064e-05	3396.205223481056	3396.205223481056	3396.205223481056	0	0	1	-60	60;
	4	10	0.0011474237792125823	0.009408874989543172	1.59251562354228e-05	4379.317261857151	4379.317261857151	4379.317261857151	0	0	1	-60	60;
	7	10	0.00021943617121981208	0.0017993766040024588	3.709096507683684e-05	15282.923505664749	15282.923505664749	15282.923505664749	0	0	1	-60	60;
	8	9	0.0062383406820868985	0.05115439359311257	4.363371135315227e-06	983.1120383760949	983.1120383760949	983.1120383760949	0	0	1	-60	60;
	8	10	0.0005928379554025724	0.0048612712343010945	2.5938341376573478e-05	7775.522485338206	7775.522485338206	7775.522485338206	0	0	1	-60	60;
];
